Version 4
SHEET 1 2352 680
WIRE 64 80 -16 80
WIRE 224 80 144 80
WIRE 304 80 224 80
WIRE 416 80 384 80
WIRE 576 80 496 80
WIRE 656 80 576 80
WIRE 816 80 736 80
WIRE 976 80 896 80
WIRE 1056 80 976 80
WIRE 1200 80 1056 80
WIRE 1472 80 1296 80
WIRE 1632 80 1552 80
WIRE 1712 80 1632 80
WIRE 1792 80 1712 80
WIRE 1888 80 1792 80
WIRE 1968 80 1888 80
WIRE 2128 80 2048 80
WIRE 2288 80 2208 80
WIRE 1200 112 1136 112
WIRE 1392 112 1296 112
WIRE -16 128 -16 80
WIRE 1792 128 1792 80
WIRE 224 144 224 80
WIRE 576 144 576 80
WIRE 976 144 976 80
WIRE 1632 144 1632 80
WIRE 1888 144 1888 80
WIRE 2288 144 2288 80
WIRE -16 240 -16 208
WIRE 224 240 224 208
WIRE 576 240 576 208
WIRE 976 240 976 208
WIRE 1632 240 1632 208
WIRE 1792 240 1792 208
WIRE 1888 240 1888 208
WIRE 2288 240 2288 208
WIRE 1056 256 1056 80
WIRE 1712 256 1712 80
WIRE 736 496 656 496
WIRE 816 496 736 496
WIRE 976 496 896 496
WIRE 1056 496 1056 320
WIRE 1056 496 976 496
WIRE 1136 496 1136 112
WIRE 1136 496 1056 496
WIRE 1392 496 1392 112
WIRE 1472 496 1392 496
WIRE 1632 496 1552 496
WIRE 1712 496 1712 320
WIRE 1712 496 1632 496
WIRE 1792 496 1712 496
WIRE 656 544 656 496
WIRE 736 544 736 496
WIRE 1792 544 1792 496
WIRE 976 560 976 496
WIRE 1632 560 1632 496
WIRE 656 656 656 624
WIRE 736 656 736 624
WIRE 976 656 976 624
WIRE 1632 656 1632 624
WIRE 1792 656 1792 624
FLAG -16 240 0
FLAG 224 240 0
FLAG 576 240 0
FLAG 976 240 0
FLAG 976 656 0
FLAG 736 656 0
FLAG 656 656 0
FLAG 1632 240 0
FLAG 1632 656 0
FLAG 1792 240 0
FLAG 1792 656 0
FLAG 1888 240 0
FLAG 2288 240 0
SYMBOL voltage -16 112 R0
SYMATTR InstName V1
SYMBOL res 160 64 R90
WINDOW 0 0 56 VBottom 2
WINDOW 3 32 56 VTop 2
SYMATTR InstName R1
SYMBOL cap 208 144 R0
SYMATTR InstName C1
SYMBOL ind 288 96 R270
WINDOW 0 32 56 VTop 2
WINDOW 3 5 56 VBottom 2
SYMATTR InstName L1
SYMBOL res 512 64 R90
WINDOW 0 0 56 VBottom 2
WINDOW 3 32 56 VTop 2
SYMATTR InstName R2
SYMBOL cap 560 144 R0
SYMATTR InstName C2
SYMBOL res 752 64 R90
WINDOW 0 0 56 VBottom 2
WINDOW 3 32 56 VTop 2
SYMATTR InstName R3
SYMBOL ind2 800 96 R270
WINDOW 0 32 56 VTop 2
WINDOW 3 5 56 VBottom 2
SYMATTR InstName L11
SYMATTR Type ind
SYMBOL cap 960 144 R0
SYMATTR InstName C11
SYMBOL tline 1248 96 R0
SYMATTR InstName T1
SYMBOL cap 1040 256 R0
SYMATTR InstName Cm
SYMBOL cap 960 560 R0
SYMATTR InstName C21
SYMBOL ind2 800 512 R270
WINDOW 0 32 56 VTop 2
WINDOW 3 5 56 VBottom 2
SYMATTR InstName L21
SYMATTR Type ind
SYMBOL res 720 528 R0
SYMATTR InstName R5
SYMBOL res 640 528 R0
SYMATTR InstName R4
SYMBOL ind2 1456 96 R270
WINDOW 0 32 56 VTop 2
WINDOW 3 5 56 VBottom 2
SYMATTR InstName L1n
SYMATTR Type ind
SYMBOL cap 1616 144 R0
SYMATTR InstName C1n
SYMBOL cap 1696 256 R0
SYMATTR InstName C7
SYMBOL cap 1616 560 R0
SYMATTR InstName C2n
SYMBOL ind2 1456 512 R270
WINDOW 0 32 56 VTop 2
WINDOW 3 5 56 VBottom 2
SYMATTR InstName L2n
SYMATTR Type ind
SYMBOL res 1776 112 R0
SYMATTR InstName R6
SYMBOL res 1776 528 R0
SYMATTR InstName R8
SYMBOL cap 1872 144 R0
SYMATTR InstName C3C9
SYMBOL res 2224 64 R90
WINDOW 0 0 56 VBottom 2
WINDOW 3 32 56 VTop 2
SYMATTR InstName R7
SYMBOL ind 1952 96 R270
WINDOW 0 32 56 VTop 2
WINDOW 3 5 56 VBottom 2
SYMATTR InstName L2
SYMBOL cap 2272 144 R0
SYMATTR InstName C4
TEXT 72 0 Left 2 ;Driver
TEXT 392 0 Left 2 ;Package
TEXT 1192 -32 Left 2 ;Aggressor
TEXT 1216 560 Left 2 ;Victim
TEXT 2000 -8 Left 2 ;Package
TEXT 2248 -8 Left 2 ;Receiver
TEXT 792 296 Left 2 !K1 L11 L21
TEXT 1448 288 Left 2 !K2 L1n L2n
