Version 4
SHEET 1 2356 680
WIRE 64 80 -16 80
WIRE 224 80 144 80
WIRE 304 80 224 80
WIRE 416 80 384 80
WIRE 576 80 496 80
WIRE 656 80 576 80
WIRE 816 80 736 80
WIRE 976 80 896 80
WIRE 1056 80 976 80
WIRE 1232 80 1056 80
WIRE 1392 80 1312 80
WIRE 1472 80 1392 80
WIRE 1552 80 1472 80
WIRE 1648 80 1552 80
WIRE 1728 80 1648 80
WIRE 1888 80 1808 80
WIRE 2048 80 1968 80
WIRE -16 128 -16 80
WIRE 1552 128 1552 80
WIRE 224 144 224 80
WIRE 576 144 576 80
WIRE 976 144 976 80
WIRE 1392 144 1392 80
WIRE 1648 144 1648 80
WIRE 2048 144 2048 80
WIRE -16 240 -16 208
WIRE 224 240 224 208
WIRE 576 240 576 208
WIRE 976 240 976 208
WIRE 1392 240 1392 208
WIRE 1552 240 1552 208
WIRE 1648 240 1648 208
WIRE 2048 240 2048 208
WIRE 1056 256 1056 80
WIRE 1472 256 1472 80
WIRE 736 496 656 496
WIRE 816 496 736 496
WIRE 976 496 896 496
WIRE 1056 496 1056 320
WIRE 1056 496 976 496
WIRE 1232 496 1056 496
WIRE 1392 496 1312 496
WIRE 1472 496 1472 320
WIRE 1472 496 1392 496
WIRE 1552 496 1472 496
WIRE 656 544 656 496
WIRE 736 544 736 496
WIRE 1552 544 1552 496
WIRE 976 560 976 496
WIRE 1392 560 1392 496
WIRE 656 656 656 624
WIRE 736 656 736 624
WIRE 976 656 976 624
WIRE 1392 656 1392 624
WIRE 1552 656 1552 624
FLAG -16 240 0
FLAG 224 240 0
FLAG 576 240 0
FLAG 976 240 0
FLAG 976 656 0
FLAG 736 656 0
FLAG 656 656 0
FLAG 1392 240 0
FLAG 1392 656 0
FLAG 1552 240 0
FLAG 1552 656 0
FLAG 1648 240 0
FLAG 2048 240 0
SYMBOL voltage -16 112 R0
SYMATTR InstName V1
SYMBOL res 160 64 R90
WINDOW 0 0 56 VBottom 2
WINDOW 3 32 56 VTop 2
SYMATTR InstName R1
SYMATTR Value {R1}
SYMBOL cap 208 144 R0
SYMATTR InstName C1
SYMATTR Value {C1}
SYMBOL ind 288 96 R270
WINDOW 0 32 56 VTop 2
WINDOW 3 5 56 VBottom 2
SYMATTR InstName L1
SYMATTR Value {L1}
SYMBOL res 512 64 R90
WINDOW 0 0 56 VBottom 2
WINDOW 3 32 56 VTop 2
SYMATTR InstName R2
SYMATTR Value {R2}
SYMBOL cap 560 144 R0
SYMATTR InstName C2
SYMATTR Value {C2}
SYMBOL res 752 64 R90
WINDOW 0 0 56 VBottom 2
WINDOW 3 32 56 VTop 2
SYMATTR InstName R3
SYMATTR Value {R3}
SYMBOL ind2 800 96 R270
WINDOW 0 32 56 VTop 2
WINDOW 3 5 56 VBottom 2
SYMATTR InstName L11
SYMATTR Value {L11}
SYMATTR Type ind
SYMBOL cap 960 144 R0
SYMATTR InstName C11
SYMATTR Value {C11}
SYMBOL cap 1040 256 R0
SYMATTR InstName Cm
SYMATTR Value {Cm}
SYMBOL cap 960 560 R0
SYMATTR InstName C21
SYMATTR Value {C21}
SYMBOL ind2 800 512 R270
WINDOW 0 32 56 VTop 2
WINDOW 3 5 56 VBottom 2
SYMATTR InstName L21
SYMATTR Value {L21}
SYMATTR Type ind
SYMBOL res 720 528 R0
SYMATTR InstName R5
SYMATTR Value {R5}
SYMBOL res 640 528 R0
SYMATTR InstName R4
SYMATTR Value {R4}
SYMBOL ind2 1216 96 R270
WINDOW 0 32 56 VTop 2
WINDOW 3 5 56 VBottom 2
SYMATTR InstName L1n
SYMATTR Value {L11}
SYMATTR Type ind
SYMBOL cap 1376 144 R0
SYMATTR InstName C1n
SYMATTR Value {C11}
SYMBOL cap 1456 256 R0
SYMATTR InstName Cm2
SYMATTR Value {Cm}
SYMBOL cap 1376 560 R0
SYMATTR InstName C2n
SYMATTR Value {C21}
SYMBOL ind2 1216 512 R270
WINDOW 0 32 56 VTop 2
WINDOW 3 5 56 VBottom 2
SYMATTR InstName L2n
SYMATTR Value {L21}
SYMATTR Type ind
SYMBOL res 1536 112 R0
SYMATTR InstName R6
SYMATTR Value {R6}
SYMBOL res 1536 528 R0
SYMATTR InstName R8
SYMATTR Value {R8}
SYMBOL cap 1632 144 R0
SYMATTR InstName C3
SYMATTR Value {C3}
SYMBOL res 1984 64 R90
WINDOW 0 0 56 VBottom 2
WINDOW 3 32 56 VTop 2
SYMATTR InstName R7
SYMATTR Value {R7}
SYMBOL ind 1712 96 R270
WINDOW 0 32 56 VTop 2
WINDOW 3 5 56 VBottom 2
SYMATTR InstName L2
SYMATTR Value {L2}
SYMBOL cap 2032 144 R0
SYMATTR InstName C4
SYMATTR Value {C4}
TEXT 72 0 Left 2 ;Driver
TEXT 392 0 Left 2 ;Package
TEXT 1072 -8 Left 2 ;Aggressor
TEXT 1088 552 Left 2 ;Victim
TEXT 1760 -8 Left 2 ;Package
TEXT 2008 -8 Left 2 ;Receiver
TEXT 792 296 Left 2 !K1 L11 L21 {K}
TEXT 1208 288 Left 2 !K2 L1n L2n {K}
TEXT 128 -400 Left 2 !.param C1=7.5p R1=0
TEXT 88 -400 Right 2 ;Driver
TEXT 88 -368 Right 2 ;Package
TEXT 128 -368 Left 2 !.param L1=0 R2=0 C2=0
TEXT 88 -336 Right 2 ;Driver R
TEXT 128 -336 Left 2 !.param R3=0 R4=0 R5=0
TEXT 136 -256 Left 2 !.param C4=0
TEXT 96 -256 Right 2 ;Receiver
TEXT 96 -224 Right 2 ;Package
TEXT 136 -224 Left 2 !.param C3=0 L2=0 R7=0
TEXT 96 -192 Right 2 ;Receiver R
TEXT 136 -192 Left 2 !.param R6=0 R8=0
TEXT 160 -448 Left 2 ;Driver Side
TEXT 168 -296 Left 2 ;Receiver Side
TEXT 560 -184 Left 2 !.param L11=0 C11=0 Cm=0 L21=0 C21=0 K=0
TEXT 632 -224 Left 2 ;Transmission Line (2 Segments)
