Version 4
SHEET 1 2404 680
WIRE -176 80 -256 80
WIRE -16 80 -96 80
WIRE 64 80 -16 80
WIRE 176 80 144 80
WIRE 336 80 256 80
WIRE 352 80 336 80
WIRE 656 80 576 80
WIRE 816 80 736 80
WIRE 976 80 896 80
WIRE 1056 80 976 80
WIRE 1232 80 1056 80
WIRE 1392 80 1312 80
WIRE 1472 80 1392 80
WIRE 1552 80 1472 80
WIRE 1584 80 1552 80
WIRE 1936 80 1904 80
WIRE 2016 80 1936 80
WIRE 2176 80 2096 80
WIRE 2336 80 2256 80
WIRE -256 128 -256 80
WIRE 1552 128 1552 80
WIRE -16 144 -16 80
WIRE 336 144 336 80
WIRE 976 144 976 80
WIRE 1392 144 1392 80
WIRE 1936 144 1936 80
WIRE 2336 144 2336 80
WIRE -256 240 -256 208
WIRE -16 240 -16 208
WIRE 336 240 336 208
WIRE 976 240 976 208
WIRE 1392 240 1392 208
WIRE 1552 240 1552 208
WIRE 1936 240 1936 208
WIRE 2336 240 2336 208
WIRE 1056 256 1056 80
WIRE 1472 256 1472 80
WIRE 736 496 656 496
WIRE 816 496 736 496
WIRE 976 496 896 496
WIRE 1056 496 1056 320
WIRE 1056 496 976 496
WIRE 1232 496 1056 496
WIRE 1392 496 1312 496
WIRE 1472 496 1472 320
WIRE 1472 496 1392 496
WIRE 1552 496 1472 496
WIRE 656 544 656 496
WIRE 736 544 736 496
WIRE 1552 544 1552 496
WIRE 976 560 976 496
WIRE 1392 560 1392 496
WIRE 656 656 656 624
WIRE 736 656 736 624
WIRE 976 656 976 624
WIRE 1392 656 1392 624
WIRE 1552 656 1552 624
FLAG -256 240 0
FLAG -16 240 0
FLAG 336 240 0
FLAG 976 240 0
FLAG 976 656 0
FLAG 736 656 0
FLAG 656 656 0
FLAG 1392 240 0
FLAG 1392 656 0
FLAG 1552 240 0
FLAG 1552 656 0
FLAG 1936 240 0
FLAG 2336 240 0
FLAG 352 80 DRIVER
FLAG 576 80 DRIVER
FLAG 1584 80 RECEIVER
FLAG 1904 80 RECEIVER
SYMBOL voltage -256 112 R0
SYMATTR InstName V1
SYMBOL res -80 64 R90
WINDOW 0 0 56 VBottom 2
WINDOW 3 32 56 VTop 2
SYMATTR InstName R1
SYMATTR Value {R1}
SYMBOL cap -32 144 R0
SYMATTR InstName C1
SYMATTR Value {C1}
SYMBOL ind 48 96 R270
WINDOW 0 32 56 VTop 2
WINDOW 3 5 56 VBottom 2
SYMATTR InstName L1
SYMATTR Value {L1}
SYMBOL res 272 64 R90
WINDOW 0 0 56 VBottom 2
WINDOW 3 32 56 VTop 2
SYMATTR InstName R2
SYMATTR Value {R2}
SYMBOL cap 320 144 R0
SYMATTR InstName C2
SYMATTR Value {C2}
SYMBOL res 752 64 R90
WINDOW 0 0 56 VBottom 2
WINDOW 3 32 56 VTop 2
SYMATTR InstName R3
SYMATTR Value {R3}
SYMBOL ind2 800 96 R270
WINDOW 0 32 56 VTop 2
WINDOW 3 5 56 VBottom 2
SYMATTR InstName L11
SYMATTR Value {L11}
SYMATTR Type ind
SYMBOL cap 960 144 R0
SYMATTR InstName C11
SYMATTR Value {C11}
SYMBOL cap 1040 256 R0
SYMATTR InstName Cm
SYMATTR Value {Cm}
SYMBOL cap 960 560 R0
SYMATTR InstName C21
SYMATTR Value {C21}
SYMBOL ind2 800 512 R270
WINDOW 0 32 56 VTop 2
WINDOW 3 5 56 VBottom 2
SYMATTR InstName L21
SYMATTR Value {L21}
SYMATTR Type ind
SYMBOL res 720 528 R0
SYMATTR InstName R5
SYMATTR Value {R5}
SYMBOL res 640 528 R0
SYMATTR InstName R4
SYMATTR Value {R4}
SYMBOL ind2 1216 96 R270
WINDOW 0 32 56 VTop 2
WINDOW 3 5 56 VBottom 2
SYMATTR InstName L12
SYMATTR Value {L11}
SYMATTR Type ind
SYMBOL cap 1376 144 R0
SYMATTR InstName C12
SYMATTR Value {C11}
SYMBOL cap 1456 256 R0
SYMATTR InstName Cm2
SYMATTR Value {Cm}
SYMBOL cap 1376 560 R0
SYMATTR InstName C22
SYMATTR Value {C21}
SYMBOL ind2 1216 512 R270
WINDOW 0 32 56 VTop 2
WINDOW 3 5 56 VBottom 2
SYMATTR InstName L22
SYMATTR Value {L21}
SYMATTR Type ind
SYMBOL res 1536 112 R0
SYMATTR InstName R6
SYMATTR Value {R6}
SYMBOL res 1536 528 R0
SYMATTR InstName R8
SYMATTR Value {R8}
SYMBOL cap 1920 144 R0
SYMATTR InstName C3
SYMATTR Value {C3}
SYMBOL res 2272 64 R90
WINDOW 0 0 56 VBottom 2
WINDOW 3 32 56 VTop 2
SYMATTR InstName R7
SYMATTR Value {R7}
SYMBOL ind 2000 96 R270
WINDOW 0 32 56 VTop 2
WINDOW 3 5 56 VBottom 2
SYMATTR InstName L2
SYMATTR Value {L2}
SYMBOL cap 2320 144 R0
SYMATTR InstName C4
SYMATTR Value {C4}
TEXT -144 16 Left 2 ;Driver
TEXT 168 16 Left 2 ;Package
TEXT 1072 -8 Left 2 ;Aggressor
TEXT 1088 552 Left 2 ;Victim
TEXT 2040 8 Left 2 ;Package
TEXT 2304 8 Left 2 ;Receiver
TEXT 792 296 Left 2 !K1 L11 L21 {K}
TEXT 1208 288 Left 2 !K2 L12 L22 {K}
TEXT 128 -400 Left 2 !.param C1=0 R1=0
TEXT 88 -400 Right 2 ;Driver
TEXT 88 -368 Right 2 ;Package
TEXT 128 -368 Left 2 !.param L1=0 R2=0 C2=0
TEXT 88 -336 Right 2 ;Driver R
TEXT 128 -336 Left 2 !.param R3=0 R4=0 R5=0
TEXT 136 -256 Left 2 !.param C4=0
TEXT 96 -256 Right 2 ;Receiver
TEXT 96 -224 Right 2 ;Package
TEXT 136 -224 Left 2 !.param C3=0 L2=0 R7=0
TEXT 96 -192 Right 2 ;Receiver R
TEXT 136 -192 Left 2 !.param R6=0 R8=0
TEXT 160 -448 Left 2 ;Driver Side
TEXT 168 -296 Left 2 ;Receiver Side
TEXT 560 -184 Left 2 !.param L11=0 C11=0 Cm=0 L21=0 C21=0 K=0
TEXT 632 -224 Left 2 ;Transmission Line (2 Segments)
TEXT 584 208 Left 2 ;Discrete resistors on PCB:\nR3, R4, R5, R6, R8
